notebook_tutorials/synthetic_net_opendss/master_sample_50.dss
clear
new circuit.synthetic_net basekv=157.6864406779661 pu=1.0 phases=3
edit Vsource.source bus1=bus_68.1.2.3

!---------------- LINES ----------------

new linecode.LCode_0 nphases=1 rmatrix=[0.946461] xmatrix=[1.242115] units=km
new line.line_0 bus1=bus_0.3 bus2=bus_1.3 linecode=LCode_0 length=1.0 units=km
new linecode.LCode_1 nphases=1 rmatrix=[0.803489] xmatrix=[1.712991] units=km
new line.line_1 bus1=bus_0.3 bus2=bus_2.3 linecode=LCode_1 length=1.0 units=km
new linecode.LCode_2 nphases=1 rmatrix=[0.679666] xmatrix=[1.350432] units=km
new line.line_2 bus1=bus_3.3 bus2=bus_4.3 linecode=LCode_2 length=1.0 units=km
new linecode.LCode_3 nphases=1 rmatrix=[0.629112] xmatrix=[1.315539] units=km
new line.line_3 bus1=bus_2.3 bus2=bus_4.3 linecode=LCode_3 length=1.0 units=km
new linecode.LCode_4 nphases=1 rmatrix=[0.537336] xmatrix=[1.366163] units=km
new line.line_4 bus1=bus_4.3 bus2=bus_5.3 linecode=LCode_4 length=1.0 units=km
new linecode.LCode_5 nphases=1 rmatrix=[0.970527] xmatrix=[1.242115] units=km
new line.line_5 bus1=bus_5.3 bus2=bus_6.3 linecode=LCode_5 length=1.0 units=km
new linecode.LCode_6 nphases=1 rmatrix=[0.638354] xmatrix=[1.529189] units=km
new line.line_6 bus1=bus_7.3 bus2=bus_8.3 linecode=LCode_6 length=1.0 units=km
new linecode.LCode_7 nphases=1 rmatrix=[0.766038] xmatrix=[1.272018] units=km
new line.line_7 bus1=bus_8.3 bus2=bus_9.3 linecode=LCode_7 length=1.0 units=km
new linecode.LCode_8 nphases=1 rmatrix=[0.827286] xmatrix=[1.380896] units=km
new line.line_8 bus1=bus_3.3 bus2=bus_10.3 linecode=LCode_8 length=1.0 units=km
new linecode.LCode_9 nphases=1 rmatrix=[0.784135] xmatrix=[1.508318] units=km
new line.line_9 bus1=bus_4.3 bus2=bus_10.3 linecode=LCode_9 length=1.0 units=km
new linecode.LCode_10 nphases=1 rmatrix=[0.853267] xmatrix=[1.359147] units=km
new line.line_10 bus1=bus_10.3 bus2=bus_11.3 linecode=LCode_10 length=1.0 units=km
new linecode.LCode_11 nphases=1 rmatrix=[0.736213] xmatrix=[1.257169] units=km
new line.line_11 bus1=bus_1.3 bus2=bus_11.3 linecode=LCode_11 length=1.0 units=km
new linecode.LCode_12 nphases=1 rmatrix=[0.972256] xmatrix=[1.242115] units=km
new line.line_12 bus1=bus_2.3 bus2=bus_11.3 linecode=LCode_12 length=1.0 units=km
new linecode.LCode_13 nphases=1 rmatrix=[0.735940] xmatrix=[1.475483] units=km
new line.line_13 bus1=bus_6.3 bus2=bus_11.3 linecode=LCode_13 length=1.0 units=km
new linecode.LCode_16 nphases=1 rmatrix=[0.713881] xmatrix=[1.498037] units=km
new line.line_16 bus1=bus_12.1 bus2=bus_14.1 linecode=LCode_16 length=1.0 units=km
new linecode.LCode_17 nphases=1 rmatrix=[0.991273] xmatrix=[1.321704] units=km
new line.line_17 bus1=bus_13.1 bus2=bus_14.1 linecode=LCode_17 length=1.0 units=km
new linecode.LCode_18 nphases=1 rmatrix=[0.682304] xmatrix=[1.242115] units=km
new line.line_18 bus1=bus_11.3 bus2=bus_15.3 linecode=LCode_18 length=1.0 units=km
new linecode.LCode_20 nphases=1 rmatrix=[0.677863] xmatrix=[1.315545] units=km
new line.line_20 bus1=bus_15.3 bus2=bus_16.3 linecode=LCode_20 length=1.0 units=km
new linecode.LCode_21 nphases=1 rmatrix=[1.030013] xmatrix=[1.538832] units=km
new line.line_21 bus1=bus_16.3 bus2=bus_17.3 linecode=LCode_21 length=1.0 units=km
new linecode.LCode_24 nphases=1 rmatrix=[0.960603] xmatrix=[1.364679] units=km
new line.line_24 bus1=bus_14.1 bus2=bus_18.1 linecode=LCode_24 length=1.0 units=km
new linecode.LCode_25 nphases=1 rmatrix=[0.428465] xmatrix=[1.366341] units=km
new line.line_25 bus1=bus_19.3 bus2=bus_20.3 linecode=LCode_25 length=1.0 units=km
new linecode.LCode_26 nphases=1 rmatrix=[0.564311] xmatrix=[1.242115] units=km
new line.line_26 bus1=bus_20.3 bus2=bus_21.3 linecode=LCode_26 length=1.0 units=km
new linecode.LCode_27 nphases=1 rmatrix=[0.764335] xmatrix=[1.242115] units=km
new line.line_27 bus1=bus_21.3 bus2=bus_22.3 linecode=LCode_27 length=1.0 units=km
new linecode.LCode_28 nphases=1 rmatrix=[0.504570] xmatrix=[1.242115] units=km
new line.line_28 bus1=bus_22.3 bus2=bus_23.3 linecode=LCode_28 length=1.0 units=km
new linecode.LCode_29 nphases=1 rmatrix=[0.905254] xmatrix=[1.244948] units=km
new line.line_29 bus1=bus_22.3 bus2=bus_24.3 linecode=LCode_29 length=1.0 units=km
new linecode.LCode_30 nphases=1 rmatrix=[0.449646] xmatrix=[1.283964] units=km
new line.line_30 bus1=bus_24.3 bus2=bus_26.3 linecode=LCode_30 length=1.0 units=km
new linecode.LCode_31 nphases=1 rmatrix=[1.288308] xmatrix=[1.279060] units=km
new line.line_31 bus1=bus_26.3 bus2=bus_27.3 linecode=LCode_31 length=1.0 units=km
new linecode.LCode_32 nphases=1 rmatrix=[1.412772] xmatrix=[1.242115] units=km
new line.line_32 bus1=bus_27.3 bus2=bus_28.3 linecode=LCode_32 length=1.0 units=km
new linecode.LCode_33 nphases=1 rmatrix=[0.628771] xmatrix=[1.259336] units=km
new line.line_33 bus1=bus_7.3 bus2=bus_29.3 linecode=LCode_33 length=1.0 units=km
new linecode.LCode_34 nphases=1 rmatrix=[1.109394] xmatrix=[1.550394] units=km
new line.line_34 bus1=bus_25.3 bus2=bus_29.3 linecode=LCode_34 length=1.0 units=km
new linecode.LCode_35 nphases=1 rmatrix=[0.627534] xmatrix=[1.242115] units=km
new line.line_35 bus1=bus_16.3 bus2=bus_30.3 linecode=LCode_35 length=1.0 units=km
new linecode.LCode_36 nphases=1 rmatrix=[1.140172] xmatrix=[1.413836] units=km
new line.line_36 bus1=bus_28.3 bus2=bus_30.3 linecode=LCode_36 length=1.0 units=km
new linecode.LCode_37 nphases=1 rmatrix=[0.418596] xmatrix=[1.242115] units=km
new line.line_37 bus1=bus_22.3 bus2=bus_31.3 linecode=LCode_37 length=1.0 units=km
new linecode.LCode_38 nphases=1 rmatrix=[0.267318] xmatrix=[1.242115] units=km
new line.line_38 bus1=bus_30.3 bus2=bus_31.3 linecode=LCode_38 length=1.0 units=km
new linecode.LCode_39 nphases=1 rmatrix=[1.020673] xmatrix=[1.242115] units=km
new line.line_39 bus1=bus_26.3 bus2=bus_31.3 linecode=LCode_39 length=1.0 units=km
new linecode.LCode_40 nphases=1 rmatrix=[0.515246] xmatrix=[1.284224] units=km
new line.line_40 bus1=bus_14.1 bus2=bus_32.1 linecode=LCode_40 length=1.0 units=km
new linecode.LCode_41 nphases=1 rmatrix=[0.507342] xmatrix=[1.344783] units=km
new line.line_41 bus1=bus_18.1 bus2=bus_33.1 linecode=LCode_41 length=1.0 units=km
new linecode.LCode_42 nphases=1 rmatrix=[0.645166] xmatrix=[1.242115] units=km
new line.line_42 bus1=bus_34.1 bus2=bus_35.1 linecode=LCode_42 length=1.0 units=km
new linecode.LCode_43 nphases=1 rmatrix=[0.486966] xmatrix=[1.294870] units=km
new line.line_43 bus1=bus_34.1 bus2=bus_36.1 linecode=LCode_43 length=1.0 units=km
new linecode.LCode_44 nphases=1 rmatrix=[0.863761] xmatrix=[1.242115] units=km
new line.line_44 bus1=bus_32.1 bus2=bus_36.1 linecode=LCode_44 length=1.0 units=km
new linecode.LCode_45 nphases=1 rmatrix=[0.833586] xmatrix=[1.373072] units=km
new line.line_45 bus1=bus_33.1 bus2=bus_35.1 linecode=LCode_45 length=1.0 units=km
new linecode.LCode_46 nphases=1 rmatrix=[1.522766] xmatrix=[1.277463] units=km
new line.line_46 bus1=bus_33.1 bus2=bus_36.1 linecode=LCode_46 length=1.0 units=km
new linecode.LCode_47 nphases=1 rmatrix=[0.936130] xmatrix=[1.293748] units=km
new line.line_47 bus1=bus_36.1 bus2=bus_38.1 linecode=LCode_47 length=1.0 units=km
new linecode.LCode_48 nphases=1 rmatrix=[0.483208] xmatrix=[1.322485] units=km
new line.line_48 bus1=bus_36.1 bus2=bus_39.1 linecode=LCode_48 length=1.0 units=km
new linecode.LCode_49 nphases=1 rmatrix=[0.868548] xmatrix=[1.242115] units=km
new line.line_49 bus1=bus_29.3 bus2=bus_37.3 linecode=LCode_49 length=1.0 units=km
new linecode.LCode_50 nphases=1 rmatrix=[0.443329] xmatrix=[1.556259] units=km
new line.line_50 bus1=bus_38.1 bus2=bus_39.1 linecode=LCode_50 length=1.0 units=km
new linecode.LCode_51 nphases=1 rmatrix=[0.786706] xmatrix=[1.376340] units=km
new line.line_51 bus1=bus_39.1 bus2=bus_40.1 linecode=LCode_51 length=1.0 units=km
new linecode.LCode_52 nphases=1 rmatrix=[0.789640] xmatrix=[1.445419] units=km
new line.line_52 bus1=bus_39.1 bus2=bus_41.1 linecode=LCode_52 length=1.0 units=km
new linecode.LCode_53 nphases=1 rmatrix=[0.717295] xmatrix=[1.461268] units=km
new line.line_53 bus1=bus_40.1 bus2=bus_41.1 linecode=LCode_53 length=1.0 units=km
new linecode.LCode_54 nphases=1 rmatrix=[1.082461] xmatrix=[1.349596] units=km
new line.line_54 bus1=bus_42.1 bus2=bus_43.1 linecode=LCode_54 length=1.0 units=km
new linecode.LCode_55 nphases=1 rmatrix=[0.240161] xmatrix=[1.242115] units=km
new line.line_55 bus1=bus_33.1 bus2=bus_42.1 linecode=LCode_55 length=1.0 units=km
new linecode.LCode_56 nphases=1 rmatrix=[0.835571] xmatrix=[1.524575] units=km
new line.line_56 bus1=bus_43.1 bus2=bus_44.1 linecode=LCode_56 length=1.0 units=km
new linecode.LCode_57 nphases=1 rmatrix=[0.855017] xmatrix=[1.357708] units=km
new line.line_57 bus1=bus_44.1 bus2=bus_45.1 linecode=LCode_57 length=1.0 units=km
new linecode.LCode_58 nphases=2 rmatrix=[0.573433 | 0.059160 0.573433] xmatrix=[1.383834 | 0.940589 1.383834] units=km
new line.line_58 bus1=bus_45.1.3 bus2=bus_46.1.3 linecode=LCode_58 length=1.0 units=km
new linecode.LCode_59 nphases=1 rmatrix=[1.372300] xmatrix=[1.524575] units=km
new line.line_59 bus1=bus_45.1 bus2=bus_47.1 linecode=LCode_59 length=1.0 units=km
new linecode.LCode_60 nphases=1 rmatrix=[0.719003] xmatrix=[1.532885] units=km
new line.line_60 bus1=bus_46.1 bus2=bus_48.1 linecode=LCode_60 length=1.0 units=km
new linecode.LCode_61 nphases=1 rmatrix=[0.609514] xmatrix=[1.492553] units=km
new line.line_61 bus1=bus_41.1 bus2=bus_48.1 linecode=LCode_61 length=1.0 units=km
new linecode.LCode_62 nphases=1 rmatrix=[0.291018] xmatrix=[1.419564] units=km
new line.line_62 bus1=bus_41.1 bus2=bus_48.1 linecode=LCode_62 length=1.0 units=km
new linecode.LCode_63 nphases=1 rmatrix=[0.778110] xmatrix=[1.301232] units=km
new line.line_63 bus1=bus_44.1 bus2=bus_48.1 linecode=LCode_63 length=1.0 units=km
new linecode.LCode_64 nphases=1 rmatrix=[1.171928] xmatrix=[1.615761] units=km
new line.line_64 bus1=bus_47.1 bus2=bus_48.1 linecode=LCode_64 length=1.0 units=km
new linecode.LCode_65 nphases=1 rmatrix=[0.397211] xmatrix=[1.394945] units=km
new line.line_65 bus1=bus_48.1 bus2=bus_49.1 linecode=LCode_65 length=1.0 units=km
new linecode.LCode_66 nphases=1 rmatrix=[0.428096] xmatrix=[1.242115] units=km
new line.line_66 bus1=bus_48.1 bus2=bus_50.1 linecode=LCode_66 length=1.0 units=km
new linecode.LCode_67 nphases=1 rmatrix=[0.319468] xmatrix=[1.286263] units=km
new line.line_67 bus1=bus_50.1 bus2=bus_51.1 linecode=LCode_67 length=1.0 units=km
new linecode.LCode_68 nphases=1 rmatrix=[0.639398] xmatrix=[1.242115] units=km
new line.line_68 bus1=bus_51.1 bus2=bus_52.1 linecode=LCode_68 length=1.0 units=km
new linecode.LCode_69 nphases=1 rmatrix=[0.497572] xmatrix=[1.318079] units=km
new line.line_69 bus1=bus_52.1 bus2=bus_53.1 linecode=LCode_69 length=1.0 units=km
new linecode.LCode_70 nphases=1 rmatrix=[0.846234] xmatrix=[1.242115] units=km
new line.line_70 bus1=bus_48.1 bus2=bus_53.1 linecode=LCode_70 length=1.0 units=km
new linecode.LCode_71 nphases=1 rmatrix=[0.262496] xmatrix=[1.397386] units=km
new line.line_71 bus1=bus_48.1 bus2=bus_53.1 linecode=LCode_71 length=1.0 units=km
new linecode.LCode_72 nphases=1 rmatrix=[0.222410] xmatrix=[1.242115] units=km
new line.line_72 bus1=bus_53.1 bus2=bus_54.1 linecode=LCode_72 length=1.0 units=km
new linecode.LCode_73 nphases=1 rmatrix=[0.140255] xmatrix=[1.365526] units=km
new line.line_73 bus1=bus_53.1 bus2=bus_55.1 linecode=LCode_73 length=1.0 units=km
new linecode.LCode_74 nphases=1 rmatrix=[0.514821] xmatrix=[1.339141] units=km
new line.line_74 bus1=bus_54.1 bus2=bus_55.1 linecode=LCode_74 length=1.0 units=km
new linecode.LCode_75 nphases=1 rmatrix=[0.226611] xmatrix=[1.242115] units=km
new line.line_75 bus1=bus_55.1 bus2=bus_56.1 linecode=LCode_75 length=1.0 units=km
new linecode.LCode_76 nphases=1 rmatrix=[0.753623] xmatrix=[1.415051] units=km
new line.line_76 bus1=bus_49.1 bus2=bus_56.1 linecode=LCode_76 length=1.0 units=km
new linecode.LCode_77 nphases=1 rmatrix=[0.665424] xmatrix=[1.242115] units=km
new line.line_77 bus1=bus_55.1 bus2=bus_57.1 linecode=LCode_77 length=1.0 units=km
new linecode.LCode_78 nphases=1 rmatrix=[0.236755] xmatrix=[1.242115] units=km
new line.line_78 bus1=bus_50.1 bus2=bus_57.1 linecode=LCode_78 length=1.0 units=km
new linecode.LCode_79 nphases=1 rmatrix=[0.302261] xmatrix=[1.423578] units=km
new line.line_79 bus1=bus_53.1 bus2=bus_58.1 linecode=LCode_79 length=1.0 units=km
new linecode.LCode_80 nphases=1 rmatrix=[0.696130] xmatrix=[1.242115] units=km
new line.line_80 bus1=bus_55.1 bus2=bus_58.1 linecode=LCode_80 length=1.0 units=km
new linecode.LCode_81 nphases=1 rmatrix=[1.016895] xmatrix=[1.380527] units=km
new line.line_81 bus1=bus_55.1 bus2=bus_58.1 linecode=LCode_81 length=1.0 units=km
new linecode.LCode_82 nphases=1 rmatrix=[0.509209] xmatrix=[1.455764] units=km
new line.line_82 bus1=bus_54.1 bus2=bus_58.1 linecode=LCode_82 length=1.0 units=km
new linecode.LCode_83 nphases=1 rmatrix=[0.726470] xmatrix=[1.249610] units=km
new line.line_83 bus1=bus_58.1 bus2=bus_59.1 linecode=LCode_83 length=1.0 units=km
new linecode.LCode_84 nphases=1 rmatrix=[0.843393] xmatrix=[1.338159] units=km
new line.line_84 bus1=bus_58.1 bus2=bus_60.1 linecode=LCode_84 length=1.0 units=km
new linecode.LCode_85 nphases=1 rmatrix=[0.267181] xmatrix=[1.481332] units=km
new line.line_85 bus1=bus_59.1 bus2=bus_60.1 linecode=LCode_85 length=1.0 units=km
new linecode.LCode_86 nphases=1 rmatrix=[0.721103] xmatrix=[1.242115] units=km
new line.line_86 bus1=bus_59.1 bus2=bus_61.1 linecode=LCode_86 length=1.0 units=km
new linecode.LCode_87 nphases=1 rmatrix=[0.609661] xmatrix=[1.242115] units=km
new line.line_87 bus1=bus_60.1 bus2=bus_61.1 linecode=LCode_87 length=1.0 units=km
new linecode.LCode_88 nphases=2 rmatrix=[0.446560 | 0.059160 0.446560] xmatrix=[1.275025 | 1.024695 1.275025] units=km
new line.line_88 bus1=bus_62.2.3 bus2=bus_63.2.3 linecode=LCode_88 length=1.0 units=km
new linecode.LCode_89 nphases=1 rmatrix=[0.855358] xmatrix=[1.242115] units=km
new line.line_89 bus1=bus_37.3 bus2=bus_64.3 linecode=LCode_89 length=1.0 units=km
new linecode.LCode_90 nphases=2 rmatrix=[0.811539 | 0.059160 0.811539] xmatrix=[1.242115 | 1.024695 1.242115] units=km
new line.line_90 bus1=bus_63.2.3 bus2=bus_64.2.3 linecode=LCode_90 length=1.0 units=km
new linecode.LCode_91 nphases=1 rmatrix=[0.450994] xmatrix=[1.242115] units=km
new line.line_91 bus1=bus_48.1 bus2=bus_65.1 linecode=LCode_91 length=1.0 units=km
new linecode.LCode_92 nphases=1 rmatrix=[0.227077] xmatrix=[1.242115] units=km
new line.line_92 bus1=bus_48.1 bus2=bus_65.1 linecode=LCode_92 length=1.0 units=km
new linecode.LCode_93 nphases=1 rmatrix=[0.865625] xmatrix=[1.242115] units=km
new line.line_93 bus1=bus_61.1 bus2=bus_65.1 linecode=LCode_93 length=1.0 units=km
new linecode.LCode_94 nphases=1 rmatrix=[0.696382] xmatrix=[1.306703] units=km
new line.line_94 bus1=bus_61.1 bus2=bus_66.1 linecode=LCode_94 length=1.0 units=km
new linecode.LCode_95 nphases=1 rmatrix=[0.835012] xmatrix=[1.390811] units=km
new line.line_95 bus1=bus_65.1 bus2=bus_66.1 linecode=LCode_95 length=1.0 units=km
new linecode.LCode_96 nphases=2 rmatrix=[1.047482 | 0.059160 1.047482] xmatrix=[1.242115 | 0.940589 1.242115] units=km
new line.line_96 bus1=bus_46.1.3 bus2=bus_68.1.3 linecode=LCode_96 length=1.0 units=km
new linecode.LCode_97 nphases=1 rmatrix=[0.843175] xmatrix=[1.242115] units=km
new line.line_97 bus1=bus_48.1 bus2=bus_68.1 linecode=LCode_97 length=1.0 units=km
new linecode.LCode_98 nphases=1 rmatrix=[0.939380] xmatrix=[1.242115] units=km
new line.line_98 bus1=bus_68.3 bus2=bus_69.3 linecode=LCode_98 length=1.0 units=km
new linecode.LCode_99 nphases=1 rmatrix=[0.583623] xmatrix=[1.321839] units=km
new line.line_99 bus1=bus_23.3 bus2=bus_69.3 linecode=LCode_99 length=1.0 units=km
new linecode.LCode_100 nphases=1 rmatrix=[0.389953] xmatrix=[1.318078] units=km
new line.line_100 bus1=bus_69.3 bus2=bus_70.3 linecode=LCode_100 length=1.0 units=km
new linecode.LCode_101 nphases=1 rmatrix=[0.192226] xmatrix=[1.521039] units=km
new line.line_101 bus1=bus_23.3 bus2=bus_71.3 linecode=LCode_101 length=1.0 units=km
new linecode.LCode_102 nphases=1 rmatrix=[0.751218] xmatrix=[1.447544] units=km
new line.line_102 bus1=bus_70.3 bus2=bus_71.3 linecode=LCode_102 length=1.0 units=km
new linecode.LCode_103 nphases=1 rmatrix=[0.239019] xmatrix=[1.536071] units=km
new line.line_103 bus1=bus_70.3 bus2=bus_72.3 linecode=LCode_103 length=1.0 units=km
new linecode.LCode_104 nphases=1 rmatrix=[0.220197] xmatrix=[1.242115] units=km
new line.line_104 bus1=bus_69.3 bus2=bus_73.3 linecode=LCode_104 length=1.0 units=km
new linecode.LCode_106 nphases=2 rmatrix=[1.040305 | 0.059160 1.040305] xmatrix=[1.345980 | 1.024695 1.345980] units=km
new line.line_106 bus1=bus_68.1.2 bus2=bus_74.1.2 linecode=LCode_106 length=1.0 units=km
new linecode.LCode_108 nphases=2 rmatrix=[0.761373 | 0.059160 0.761373] xmatrix=[1.473625 | 1.024695 1.473625] units=km
new line.line_108 bus1=bus_75.2.3 bus2=bus_76.2.3 linecode=LCode_108 length=1.0 units=km
new linecode.LCode_109 nphases=2 rmatrix=[0.514649 | 0.059160 0.514649] xmatrix=[1.242115 | 1.024695 1.242115] units=km
new line.line_109 bus1=bus_68.2.3 bus2=bus_76.2.3 linecode=LCode_109 length=1.0 units=km
new linecode.LCode_110 nphases=1 rmatrix=[0.776940] xmatrix=[1.242115] units=km
new line.line_110 bus1=bus_74.2 bus2=bus_76.2 linecode=LCode_110 length=1.0 units=km
new linecode.LCode_111 nphases=2 rmatrix=[0.745705 | 0.059160 0.745705] xmatrix=[1.242115 | 1.024695 1.242115] units=km
new line.line_111 bus1=bus_76.2.3 bus2=bus_77.2.3 linecode=LCode_111 length=1.0 units=km
new linecode.LCode_112 nphases=2 rmatrix=[0.573290 | 0.059160 0.573290] xmatrix=[1.254696 | 1.024695 1.254696] units=km
new line.line_112 bus1=bus_77.2.3 bus2=bus_78.2.3 linecode=LCode_112 length=1.0 units=km
new linecode.LCode_116 nphases=1 rmatrix=[0.312646] xmatrix=[1.242115] units=km
new line.line_116 bus1=bus_76.3 bus2=bus_81.3 linecode=LCode_116 length=1.0 units=km
new linecode.LCode_117 nphases=1 rmatrix=[0.710317] xmatrix=[1.358692] units=km
new line.line_117 bus1=bus_81.3 bus2=bus_82.3 linecode=LCode_117 length=1.0 units=km
new linecode.LCode_118 nphases=1 rmatrix=[0.893847] xmatrix=[1.242115] units=km
new line.line_118 bus1=bus_82.3 bus2=bus_83.3 linecode=LCode_118 length=1.0 units=km
new linecode.LCode_119 nphases=1 rmatrix=[0.801856] xmatrix=[1.265708] units=km
new line.line_119 bus1=bus_82.3 bus2=bus_84.3 linecode=LCode_119 length=1.0 units=km
new linecode.LCode_120 nphases=1 rmatrix=[0.849792] xmatrix=[1.242115] units=km
new line.line_120 bus1=bus_83.3 bus2=bus_84.3 linecode=LCode_120 length=1.0 units=km
new linecode.LCode_121 nphases=1 rmatrix=[1.096877] xmatrix=[1.375481] units=km
new line.line_121 bus1=bus_84.3 bus2=bus_85.3 linecode=LCode_121 length=1.0 units=km
new linecode.LCode_122 nphases=1 rmatrix=[0.550240] xmatrix=[1.242115] units=km
new line.line_122 bus1=bus_84.3 bus2=bus_87.3 linecode=LCode_122 length=1.0 units=km
new linecode.LCode_123 nphases=1 rmatrix=[0.499539] xmatrix=[1.242115] units=km
new line.line_123 bus1=bus_84.3 bus2=bus_88.3 linecode=LCode_123 length=1.0 units=km
new linecode.LCode_124 nphases=1 rmatrix=[0.652674] xmatrix=[1.242115] units=km
new line.line_124 bus1=bus_87.3 bus2=bus_88.3 linecode=LCode_124 length=1.0 units=km
new linecode.LCode_125 nphases=1 rmatrix=[0.549561] xmatrix=[1.315520] units=km
new line.line_125 bus1=bus_88.3 bus2=bus_89.3 linecode=LCode_125 length=1.0 units=km
new linecode.LCode_126 nphases=1 rmatrix=[0.875322] xmatrix=[1.270227] units=km
new line.line_126 bus1=bus_88.3 bus2=bus_89.3 linecode=LCode_126 length=1.0 units=km
new linecode.LCode_130 nphases=1 rmatrix=[0.752085] xmatrix=[1.242115] units=km
new line.line_130 bus1=bus_90.1 bus2=bus_91.1 linecode=LCode_130 length=1.0 units=km
new linecode.LCode_131 nphases=1 rmatrix=[0.799476] xmatrix=[1.242115] units=km
new line.line_131 bus1=bus_91.1 bus2=bus_92.1 linecode=LCode_131 length=1.0 units=km
new linecode.LCode_132 nphases=1 rmatrix=[0.668777] xmatrix=[1.440117] units=km
new line.line_132 bus1=bus_91.1 bus2=bus_93.1 linecode=LCode_132 length=1.0 units=km
new linecode.LCode_133 nphases=1 rmatrix=[0.594686] xmatrix=[1.339306] units=km
new line.line_133 bus1=bus_92.1 bus2=bus_93.1 linecode=LCode_133 length=1.0 units=km
new linecode.LCode_134 nphases=1 rmatrix=[0.599119] xmatrix=[1.242115] units=km
new line.line_134 bus1=bus_93.1 bus2=bus_94.1 linecode=LCode_134 length=1.0 units=km
new linecode.LCode_135 nphases=1 rmatrix=[0.159613] xmatrix=[1.242115] units=km
new line.line_135 bus1=bus_79.1 bus2=bus_95.1 linecode=LCode_135 length=1.0 units=km
new linecode.LCode_137 nphases=1 rmatrix=[0.915712] xmatrix=[1.349820] units=km
new line.line_137 bus1=bus_93.1 bus2=bus_95.1 linecode=LCode_137 length=1.0 units=km
new linecode.LCode_138 nphases=1 rmatrix=[0.875061] xmatrix=[1.270195] units=km
new line.line_138 bus1=bus_79.1 bus2=bus_96.1 linecode=LCode_138 length=1.0 units=km
new linecode.LCode_139 nphases=1 rmatrix=[0.199791] xmatrix=[1.338685] units=km
new line.line_139 bus1=bus_79.1 bus2=bus_97.1 linecode=LCode_139 length=1.0 units=km
new linecode.LCode_140 nphases=1 rmatrix=[0.990884] xmatrix=[1.396262] units=km
new line.line_140 bus1=bus_79.1 bus2=bus_98.1 linecode=LCode_140 length=1.0 units=km
new linecode.LCode_141 nphases=1 rmatrix=[0.556670] xmatrix=[1.663823] units=km
new line.line_141 bus1=bus_91.1 bus2=bus_99.1 linecode=LCode_141 length=1.0 units=km
new linecode.LCode_142 nphases=1 rmatrix=[0.861400] xmatrix=[1.242115] units=km
new line.line_142 bus1=bus_93.1 bus2=bus_99.1 linecode=LCode_142 length=1.0 units=km
new linecode.LCode_143 nphases=1 rmatrix=[0.683316] xmatrix=[1.242115] units=km
new line.line_143 bus1=bus_94.1 bus2=bus_95.1 linecode=LCode_143 length=1.0 units=km
new linecode.LCode_144 nphases=1 rmatrix=[0.757210] xmatrix=[1.242115] units=km
new line.line_144 bus1=bus_95.1 bus2=bus_96.1 linecode=LCode_144 length=1.0 units=km
new linecode.LCode_145 nphases=1 rmatrix=[0.761388] xmatrix=[1.242115] units=km
new line.line_145 bus1=bus_97.1 bus2=bus_99.1 linecode=LCode_145 length=1.0 units=km
new linecode.LCode_146 nphases=1 rmatrix=[0.835831] xmatrix=[1.242115] units=km
new line.line_146 bus1=bus_98.1 bus2=bus_99.1 linecode=LCode_146 length=1.0 units=km
new linecode.LCode_147 nphases=1 rmatrix=[0.737271] xmatrix=[1.242115] units=km
new line.line_147 bus1=bus_99.1 bus2=bus_100.1 linecode=LCode_147 length=1.0 units=km
new linecode.LCode_148 nphases=1 rmatrix=[1.663961] xmatrix=[1.547898] units=km
new line.line_148 bus1=bus_91.1 bus2=bus_101.1 linecode=LCode_148 length=1.0 units=km
new linecode.LCode_149 nphases=1 rmatrix=[0.645572] xmatrix=[1.242115] units=km
new line.line_149 bus1=bus_100.1 bus2=bus_101.1 linecode=LCode_149 length=1.0 units=km
new linecode.LCode_150 nphases=1 rmatrix=[0.675603] xmatrix=[1.381008] units=km
new line.line_150 bus1=bus_99.1 bus2=bus_102.1 linecode=LCode_150 length=1.0 units=km
new linecode.LCode_151 nphases=1 rmatrix=[0.535572] xmatrix=[1.302578] units=km
new line.line_151 bus1=bus_99.1 bus2=bus_103.1 linecode=LCode_151 length=1.0 units=km
new linecode.LCode_152 nphases=1 rmatrix=[0.739384] xmatrix=[1.242115] units=km
new line.line_152 bus1=bus_102.1 bus2=bus_103.1 linecode=LCode_152 length=1.0 units=km
new linecode.LCode_153 nphases=1 rmatrix=[0.248696] xmatrix=[1.432383] units=km
new line.line_153 bus1=bus_102.1 bus2=bus_104.1 linecode=LCode_153 length=1.0 units=km
new linecode.LCode_154 nphases=1 rmatrix=[0.801019] xmatrix=[1.305133] units=km
new line.line_154 bus1=bus_99.1 bus2=bus_105.1 linecode=LCode_154 length=1.0 units=km
new linecode.LCode_155 nphases=1 rmatrix=[1.083354] xmatrix=[1.364593] units=km
new line.line_155 bus1=bus_103.1 bus2=bus_104.1 linecode=LCode_155 length=1.0 units=km
new linecode.LCode_156 nphases=1 rmatrix=[0.522024] xmatrix=[1.385581] units=km
new line.line_156 bus1=bus_104.1 bus2=bus_105.1 linecode=LCode_156 length=1.0 units=km
new linecode.LCode_157 nphases=1 rmatrix=[0.782349] xmatrix=[1.613244] units=km
new line.line_157 bus1=bus_104.1 bus2=bus_106.1 linecode=LCode_157 length=1.0 units=km
new linecode.LCode_158 nphases=1 rmatrix=[1.031466] xmatrix=[1.268616] units=km
new line.line_158 bus1=bus_104.1 bus2=bus_107.1 linecode=LCode_158 length=1.0 units=km
new linecode.LCode_159 nphases=1 rmatrix=[0.436261] xmatrix=[1.308260] units=km
new line.line_159 bus1=bus_105.1 bus2=bus_106.1 linecode=LCode_159 length=1.0 units=km
new linecode.LCode_160 nphases=1 rmatrix=[0.805612] xmatrix=[1.242115] units=km
new line.line_160 bus1=bus_107.1 bus2=bus_108.1 linecode=LCode_160 length=1.0 units=km
new linecode.LCode_161 nphases=1 rmatrix=[0.326579] xmatrix=[1.284317] units=km
new line.line_161 bus1=bus_102.1 bus2=bus_109.1 linecode=LCode_161 length=1.0 units=km
new linecode.LCode_162 nphases=1 rmatrix=[0.243742] xmatrix=[1.277642] units=km
new line.line_162 bus1=bus_108.1 bus2=bus_109.1 linecode=LCode_162 length=1.0 units=km
new linecode.LCode_163 nphases=1 rmatrix=[0.585470] xmatrix=[1.302446] units=km
new line.line_163 bus1=bus_109.1 bus2=bus_110.1 linecode=LCode_163 length=1.0 units=km
new linecode.LCode_164 nphases=1 rmatrix=[0.532647] xmatrix=[1.387372] units=km
new line.line_164 bus1=bus_109.1 bus2=bus_111.1 linecode=LCode_164 length=1.0 units=km
new linecode.LCode_165 nphases=1 rmatrix=[0.710671] xmatrix=[1.242115] units=km
new line.line_165 bus1=bus_16.3 bus2=bus_112.3 linecode=LCode_165 length=1.0 units=km
new linecode.LCode_166 nphases=1 rmatrix=[1.428815] xmatrix=[1.242115] units=km
new line.line_166 bus1=bus_31.3 bus2=bus_112.3 linecode=LCode_166 length=1.0 units=km
new linecode.LCode_167 nphases=1 rmatrix=[0.746427] xmatrix=[1.457901] units=km
new line.line_167 bus1=bus_31.3 bus2=bus_113.3 linecode=LCode_167 length=1.0 units=km
new linecode.LCode_168 nphases=1 rmatrix=[0.509186] xmatrix=[1.537665] units=km
new line.line_168 bus1=bus_26.3 bus2=bus_114.3 linecode=LCode_168 length=1.0 units=km
new linecode.LCode_169 nphases=1 rmatrix=[1.005100] xmatrix=[1.370588] units=km
new line.line_169 bus1=bus_113.3 bus2=bus_114.3 linecode=LCode_169 length=1.0 units=km
new linecode.LCode_170 nphases=1 rmatrix=[0.698983] xmatrix=[1.588323] units=km
new line.line_170 bus1=bus_11.3 bus2=bus_116.3 linecode=LCode_170 length=1.0 units=km
new linecode.LCode_171 nphases=2 rmatrix=[1.070373 | 0.059160 1.070373] xmatrix=[1.242115 | 1.024695 1.242115] units=km
new line.line_171 bus1=bus_74.1.2 bus2=bus_117.1.2 linecode=LCode_171 length=1.0 units=km
new linecode.LCode_172 nphases=1 rmatrix=[0.425857] xmatrix=[1.242115] units=km
new line.line_172 bus1=bus_75.2 bus2=bus_117.2 linecode=LCode_172 length=1.0 units=km

!---------------- LOADS ----------------

new load.load_0_C bus1=bus_0.3 Phases=1 kv=157.6864406779661 kw=1805.857954466588 kvar=592.3214090650408 vminpu=0.85
new load.load_1_C bus1=bus_1.3 Phases=1 kv=157.6864406779661 kw=1582.215445380415 kvar=518.9666660847762 vminpu=0.85
new load.load_2_C bus1=bus_2.3 Phases=1 kv=157.6864406779661 kw=2051.40551822633 kvar=672.8610099782363 vminpu=0.85
new load.load_3_C bus1=bus_3.3 Phases=1 kv=157.6864406779661 kw=2538.135530832327 kvar=832.5084541130033 vminpu=0.85
new load.load_4_C bus1=bus_4.3 Phases=1 kv=157.6864406779661 kw=2275.287882748206 kvar=746.2944255414116 vminpu=0.85
new load.load_5_C bus1=bus_5.3 Phases=1 kv=157.6864406779661 kw=2168.474927377604 kvar=711.2597761798542 vminpu=0.85
new load.load_6_C bus1=bus_6.3 Phases=1 kv=157.6864406779661 kw=2276.753867324277 kvar=746.7752684823629 vminpu=0.85
new load.load_7_C bus1=bus_7.3 Phases=1 kv=157.6864406779661 kw=1837.3212380078444 kvar=602.641366066573 vminpu=0.85
new load.load_8_C bus1=bus_8.3 Phases=1 kv=157.6864406779661 kw=2560.2523147333245 kvar=839.7627592325305 vminpu=0.85
new load.load_9_C bus1=bus_9.3 Phases=1 kv=157.6864406779661 kw=2213.856670481623 kvar=726.1449879179723 vminpu=0.85
new load.load_10_C bus1=bus_10.3 Phases=1 kv=157.6864406779661 kw=2191.96566360015 kvar=718.9647376608492 vminpu=0.85
new load.load_11_C bus1=bus_11.3 Phases=1 kv=157.6864406779661 kw=1590.925749955617 kvar=521.8236459854423 vminpu=0.85
new load.load_12_A bus1=bus_12.1 Phases=1 kv=157.6864406779661 kw=1621.8025749591511 kvar=531.9512445866015 vminpu=0.85
new load.load_13_A bus1=bus_13.1 Phases=1 kv=157.6864406779661 kw=2228.159171301077 kvar=730.8362081867533 vminpu=0.85
new load.load_14_A bus1=bus_14.1 Phases=1 kv=157.6864406779661 kw=1713.8285591573394 kvar=562.1357674036074 vminpu=0.85
new load.load_15_C bus1=bus_15.3 Phases=1 kv=157.6864406779661 kw=2205.1822197995234 kvar=723.2997680942437 vminpu=0.85
new load.load_16_C bus1=bus_16.3 Phases=1 kv=157.6864406779661 kw=2354.954750716467 kvar=772.4251582350013 vminpu=0.85
new load.load_17_C bus1=bus_17.3 Phases=1 kv=157.6864406779661 kw=2111.3245595289736 kvar=692.5144555255034 vminpu=0.85
new load.load_18_A bus1=bus_18.1 Phases=1 kv=157.6864406779661 kw=1425.6535111816177 kvar=467.6143516675706 vminpu=0.85
new load.load_19_C bus1=bus_19.3 Phases=1 kv=157.6864406779661 kw=2129.8573530328285 kvar=698.5932117947677 vminpu=0.85
new load.load_20_C bus1=bus_20.3 Phases=1 kv=157.6864406779661 kw=2425.137755230363 kvar=795.4451837155591 vminpu=0.85
new load.load_21_C bus1=bus_21.3 Phases=1 kv=157.6864406779661 kw=1690.0040319625275 kvar=554.3213224837091 vminpu=0.85
new load.load_22_C bus1=bus_22.3 Phases=1 kv=157.6864406779661 kw=2106.906145711878 kvar=691.0652157934959 vminpu=0.85
new load.load_23_C bus1=bus_23.3 Phases=1 kv=157.6864406779661 kw=1357.6468931904733 kvar=445.3081809664753 vminpu=0.85
new load.load_24_C bus1=bus_24.3 Phases=1 kv=157.6864406779661 kw=1765.7376627947317 kvar=579.1619533966721 vminpu=0.85
new load.load_25_C bus1=bus_25.3 Phases=1 kv=157.6864406779661 kw=1569.1811088049917 kvar=514.6914036880373 vminpu=0.85
new load.load_26_C bus1=bus_26.3 Phases=1 kv=157.6864406779661 kw=1897.184956680849 kvar=622.2766657913185 vminpu=0.85
new load.load_27_C bus1=bus_27.3 Phases=1 kv=157.6864406779661 kw=2124.770244523852 kvar=696.9246402038235 vminpu=0.85
new load.load_28_C bus1=bus_28.3 Phases=1 kv=157.6864406779661 kw=1831.1357731656767 kvar=600.612533598342 vminpu=0.85
new load.load_29_C bus1=bus_29.3 Phases=1 kv=157.6864406779661 kw=2011.923846317247 kvar=659.911021592057 vminpu=0.85
new load.load_30_C bus1=bus_30.3 Phases=1 kv=157.6864406779661 kw=1533.2776266006397 kvar=502.91506152500983 vminpu=0.85
new load.load_31_C bus1=bus_31.3 Phases=1 kv=157.6864406779661 kw=1213.220264698138 kvar=397.93624682098925 vminpu=0.85
new load.load_32_A bus1=bus_32.1 Phases=1 kv=157.6864406779661 kw=1797.4491077163486 kvar=589.5633073309624 vminpu=0.85
new load.load_33_A bus1=bus_33.1 Phases=1 kv=157.6864406779661 kw=1992.466183698508 kvar=653.5289082531107 vminpu=0.85
new load.load_34_A bus1=bus_34.1 Phases=1 kv=157.6864406779661 kw=2003.3048516158249 kvar=657.0839913299906 vminpu=0.85
new load.load_35_A bus1=bus_35.1 Phases=1 kv=157.6864406779661 kw=1915.3563594239672 kvar=628.2368858910613 vminpu=0.85
new load.load_36_A bus1=bus_36.1 Phases=1 kv=157.6864406779661 kw=2416.302298589504 kvar=792.5471539373574 vminpu=0.85
new load.load_37_C bus1=bus_37.3 Phases=1 kv=157.6864406779661 kw=965.2878298726936 kvar=316.6144081982435 vminpu=0.85
new load.load_38_A bus1=bus_38.1 Phases=1 kv=157.6864406779661 kw=2208.0696485067574 kvar=724.2468447102165 vminpu=0.85
new load.load_39_A bus1=bus_39.1 Phases=1 kv=157.6864406779661 kw=2128.80418609877 kvar=698.2477730403966 vminpu=0.85
new load.load_40_A bus1=bus_40.1 Phases=1 kv=157.6864406779661 kw=2000.8932065778424 kvar=656.2929717575323 vminpu=0.85
new load.load_41_A bus1=bus_41.1 Phases=1 kv=157.6864406779661 kw=1507.8333914815078 kvar=494.5693524059346 vminpu=0.85
new load.load_42_A bus1=bus_42.1 Phases=1 kv=157.6864406779661 kw=2146.8706912775065 kvar=704.1735867390222 vminpu=0.85
new load.load_43_A bus1=bus_43.1 Phases=1 kv=157.6864406779661 kw=1712.4942129233912 kvar=561.6981018388723 vminpu=0.85
new load.load_44_A bus1=bus_44.1 Phases=1 kv=157.6864406779661 kw=2190.3838706917577 kvar=718.4459095868965 vminpu=0.85
new load.load_45_A bus1=bus_45.1 Phases=1 kv=157.6864406779661 kw=332.35080908903467 kvar=109.01106538120338 vminpu=0.85
new load.load_45_C bus1=bus_45.3 Phases=1 kv=157.6864406779661 kw=1565.8845956093455 kvar=513.6101473598653 vminpu=0.85
new load.load_46_A bus1=bus_46.1 Phases=1 kv=157.6864406779661 kw=93.93280848540256 kvar=30.809961183212042 vminpu=0.85
new load.load_46_C bus1=bus_46.3 Phases=1 kv=157.6864406779661 kw=1390.6241527323962 kvar=456.124722096226 vminpu=0.85
new load.load_47_A bus1=bus_47.1 Phases=1 kv=157.6864406779661 kw=1868.153862675584 kvar=612.7544669575916 vminpu=0.85
new load.load_48_A bus1=bus_48.1 Phases=1 kv=157.6864406779661 kw=2419.8282825556616 kvar=793.703676678257 vminpu=0.85
new load.load_49_A bus1=bus_49.1 Phases=1 kv=157.6864406779661 kw=1336.2202143524871 kvar=438.2802303076158 vminpu=0.85
new load.load_50_A bus1=bus_50.1 Phases=1 kv=157.6864406779661 kw=2185.1659033159717 kvar=716.7344162876387 vminpu=0.85
new load.load_51_A bus1=bus_51.1 Phases=1 kv=157.6864406779661 kw=2031.3571704729693 kvar=666.285151915134 vminpu=0.85
new load.load_52_A bus1=bus_52.1 Phases=1 kv=157.6864406779661 kw=3341.351623106445 kvar=1095.963332378914 vminpu=0.85
new load.load_53_A bus1=bus_53.1 Phases=1 kv=157.6864406779661 kw=2237.248681543753 kvar=733.8175675463509 vminpu=0.85
new load.load_54_A bus1=bus_54.1 Phases=1 kv=157.6864406779661 kw=2420.3009984329874 kvar=793.8587274860199 vminpu=0.85
new load.load_55_A bus1=bus_55.1 Phases=1 kv=157.6864406779661 kw=2055.260153886624 kvar=674.1253304748126 vminpu=0.85
new load.load_56_A bus1=bus_56.1 Phases=1 kv=157.6864406779661 kw=2190.148852881299 kvar=718.368823745066 vminpu=0.85
new load.load_57_A bus1=bus_57.1 Phases=1 kv=157.6864406779661 kw=1785.7794559003376 kvar=585.7356615353108 vminpu=0.85
new load.load_58_A bus1=bus_58.1 Phases=1 kv=157.6864406779661 kw=1832.8472044490225 kvar=601.1738830592794 vminpu=0.85
new load.load_59_A bus1=bus_59.1 Phases=1 kv=157.6864406779661 kw=2172.7979833391933 kvar=712.6777385352555 vminpu=0.85
new load.load_60_A bus1=bus_60.1 Phases=1 kv=157.6864406779661 kw=1221.1894223994382 kvar=400.5501305470157 vminpu=0.85
new load.load_61_A bus1=bus_61.1 Phases=1 kv=157.6864406779661 kw=2186.1240841783942 kvar=717.0486996105134 vminpu=0.85
new load.load_62_B bus1=bus_62.2 Phases=1 kv=157.6864406779661 kw=2110.7988567790394 kvar=692.3420250235249 vminpu=0.85
new load.load_62_C bus1=bus_62.3 Phases=1 kv=157.6864406779661 kw=17.43543151909732 kvar=5.718821538263922 vminpu=0.85
new load.load_63_B bus1=bus_63.2 Phases=1 kv=157.6864406779661 kw=768.719131412098 kvar=252.13987510316815 vminpu=0.85
new load.load_63_C bus1=bus_63.3 Phases=1 kv=157.6864406779661 kw=1348.3408491389623 kvar=442.25579851757965 vminpu=0.85
new load.load_64_B bus1=bus_64.2 Phases=1 kv=157.6864406779661 kw=1161.328065725144 kvar=380.91560555784724 vminpu=0.85
new load.load_64_C bus1=bus_64.3 Phases=1 kv=157.6864406779661 kw=1048.9666188868796 kvar=344.0610509948965 vminpu=0.85
new load.load_65_A bus1=bus_65.1 Phases=1 kv=157.6864406779661 kw=2405.865379396726 kvar=789.1238444421261 vminpu=0.85
new load.load_66_A bus1=bus_66.1 Phases=1 kv=157.6864406779661 kw=1577.4873798898516 kvar=517.4158606038714 vminpu=0.85
new load.load_67_B bus1=bus_67.2 Phases=1 kv=157.6864406779661 kw=161.2654900565802 kvar=52.895080738558306 vminpu=0.85
new load.load_67_C bus1=bus_67.3 Phases=1 kv=157.6864406779661 kw=1467.7728074766176 kvar=481.4294808523306 vminpu=0.85
new load.load_69_C bus1=bus_69.3 Phases=1 kv=157.6864406779661 kw=1996.5838557032296 kvar=654.8795046706593 vminpu=0.85
new load.load_70_C bus1=bus_70.3 Phases=1 kv=157.6864406779661 kw=1656.2919038792477 kvar=543.2637444723932 vminpu=0.85
new load.load_71_C bus1=bus_71.3 Phases=1 kv=157.6864406779661 kw=2330.910189319397 kvar=764.5385420967623 vminpu=0.85
new load.load_72_C bus1=bus_72.3 Phases=1 kv=157.6864406779661 kw=2099.915538973225 kvar=688.7722967832178 vminpu=0.85
new load.load_73_C bus1=bus_73.3 Phases=1 kv=157.6864406779661 kw=2033.0239613300148 kvar=666.8318593162448 vminpu=0.85
new load.load_74_A bus1=bus_74.1 Phases=1 kv=157.6864406779661 kw=212.6318795982121 kvar=69.74325650821358 vminpu=0.85
new load.load_74_B bus1=bus_74.2 Phases=1 kv=157.6864406779661 kw=1966.4200377439304 kvar=644.9857723800092 vminpu=0.85
new load.load_75_B bus1=bus_75.2 Phases=1 kv=157.6864406779661 kw=1173.800683479073 kvar=385.006624181136 vminpu=0.85
new load.load_75_C bus1=bus_75.3 Phases=1 kv=157.6864406779661 kw=753.6022045712276 kvar=247.18152309936266 vminpu=0.85
new load.load_76_B bus1=bus_76.2 Phases=1 kv=157.6864406779661 kw=1089.9535122089003 kvar=357.50475200451933 vminpu=0.85
new load.load_76_C bus1=bus_76.3 Phases=1 kv=157.6864406779661 kw=1163.4397029102113 kvar=381.60822255454934 vminpu=0.85
new load.load_77_B bus1=bus_77.2 Phases=1 kv=157.6864406779661 kw=1989.5198675893264 kvar=652.5625165692991 vminpu=0.85
new load.load_77_C bus1=bus_77.3 Phases=1 kv=157.6864406779661 kw=117.24042708826742 kvar=38.45486008495172 vminpu=0.85
new load.load_78_B bus1=bus_78.2 Phases=1 kv=157.6864406779661 kw=930.2249583260112 kvar=305.1137863309317 vminpu=0.85
new load.load_78_C bus1=bus_78.3 Phases=1 kv=157.6864406779661 kw=908.638745649704 kvar=298.03350857310295 vminpu=0.85
new load.load_79_A bus1=bus_79.1 Phases=1 kv=157.6864406779661 kw=2437.394414944597 kvar=799.4653681018278 vminpu=0.85
new load.load_80_B bus1=bus_80.2 Phases=1 kv=157.6864406779661 kw=927.0007289858167 kvar=304.0562391073479 vminpu=0.85
new load.load_80_C bus1=bus_80.3 Phases=1 kv=157.6864406779661 kw=733.2881505329945 kvar=240.5185133748222 vminpu=0.85
new load.load_81_C bus1=bus_81.3 Phases=1 kv=157.6864406779661 kw=2045.9394491056091 kvar=671.0681393066399 vminpu=0.85
new load.load_82_C bus1=bus_82.3 Phases=1 kv=157.6864406779661 kw=2336.168022599252 kvar=766.2631114125546 vminpu=0.85
new load.load_83_C bus1=bus_83.3 Phases=1 kv=157.6864406779661 kw=1800.453201081786 kvar=590.5486499548258 vminpu=0.85
new load.load_84_C bus1=bus_84.3 Phases=1 kv=157.6864406779661 kw=2568.859066765206 kvar=842.5857738989877 vminpu=0.85
new load.load_85_C bus1=bus_85.3 Phases=1 kv=157.6864406779661 kw=1640.2970950255549 kvar=538.017447168382 vminpu=0.85
new load.load_86_C bus1=bus_86.3 Phases=1 kv=157.6864406779661 kw=2102.708624525708 kvar=689.6884288444322 vminpu=0.85
new load.load_87_C bus1=bus_87.3 Phases=1 kv=157.6864406779661 kw=2129.9759643301413 kvar=698.6321163002864 vminpu=0.85
new load.load_88_C bus1=bus_88.3 Phases=1 kv=157.6864406779661 kw=2124.494610451307 kvar=696.8342322280287 vminpu=0.85
new load.load_89_C bus1=bus_89.3 Phases=1 kv=157.6864406779661 kw=2108.31049122048 kvar=691.5258411203174 vminpu=0.85
new load.load_90_A bus1=bus_90.1 Phases=1 kv=157.6864406779661 kw=2194.2057884251585 kvar=719.6994986034521 vminpu=0.85
new load.load_91_A bus1=bus_91.1 Phases=1 kv=157.6864406779661 kw=1959.1003530818152 kvar=642.5849158108355 vminpu=0.85
new load.load_92_A bus1=bus_92.1 Phases=1 kv=157.6864406779661 kw=2090.923296860905 kvar=685.8228413703769 vminpu=0.85
new load.load_93_A bus1=bus_93.1 Phases=1 kv=157.6864406779661 kw=1414.782767827106 kvar=464.04874784729077 vminpu=0.85
new load.load_94_A bus1=bus_94.1 Phases=1 kv=157.6864406779661 kw=2669.640150356888 kvar=875.6419693170593 vminpu=0.85
new load.load_95_A bus1=bus_95.1 Phases=1 kv=157.6864406779661 kw=1991.4502190793191 kvar=653.1956718580167 vminpu=0.85
new load.load_96_A bus1=bus_96.1 Phases=1 kv=157.6864406779661 kw=1971.1055884637196 kvar=646.5226330161 vminpu=0.85
new load.load_97_A bus1=bus_97.1 Phases=1 kv=157.6864406779661 kw=2428.0398329469485 kvar=796.3970652065991 vminpu=0.85
new load.load_98_A bus1=bus_98.1 Phases=1 kv=157.6864406779661 kw=2298.301534315874 kvar=753.8429032556068 vminpu=0.85
new load.load_99_A bus1=bus_99.1 Phases=1 kv=157.6864406779661 kw=1835.8435858381677 kvar=602.156696154919 vminpu=0.85
new load.load_100_A bus1=bus_100.1 Phases=1 kv=157.6864406779661 kw=2582.2142875884792 kvar=846.9662863290213 vminpu=0.85
new load.load_101_A bus1=bus_101.1 Phases=1 kv=157.6864406779661 kw=1498.613374121672 kvar=491.54518671190846 vminpu=0.85
new load.load_102_A bus1=bus_102.1 Phases=1 kv=157.6864406779661 kw=2280.200033593393 kvar=747.905611018633 vminpu=0.85
new load.load_103_A bus1=bus_103.1 Phases=1 kv=157.6864406779661 kw=2329.6781654953265 kvar=764.1344382824672 vminpu=0.85
new load.load_104_A bus1=bus_104.1 Phases=1 kv=157.6864406779661 kw=2378.539150735154 kvar=780.1608414411306 vminpu=0.85
new load.load_105_A bus1=bus_105.1 Phases=1 kv=157.6864406779661 kw=1518.669785919531 kvar=498.1236897816062 vminpu=0.85
new load.load_106_A bus1=bus_106.1 Phases=1 kv=157.6864406779661 kw=2102.6852488538766 kvar=689.6807616240716 vminpu=0.85
new load.load_107_A bus1=bus_107.1 Phases=1 kv=157.6864406779661 kw=2160.277230481426 kvar=708.5709315979078 vminpu=0.85
new load.load_108_A bus1=bus_108.1 Phases=1 kv=157.6864406779661 kw=2199.1960768318977 kvar=721.3363132008625 vminpu=0.85
new load.load_109_A bus1=bus_109.1 Phases=1 kv=157.6864406779661 kw=1736.682659457947 kvar=569.6319123022066 vminpu=0.85
new load.load_110_A bus1=bus_110.1 Phases=1 kv=157.6864406779661 kw=2363.705087322826 kvar=775.2952686418869 vminpu=0.85
new load.load_111_A bus1=bus_111.1 Phases=1 kv=157.6864406779661 kw=2294.812813470694 kvar=752.6986028183877 vminpu=0.85
new load.load_112_C bus1=bus_112.3 Phases=1 kv=157.6864406779661 kw=1537.8432352941147 kvar=504.41258117646964 vminpu=0.85
new load.load_113_C bus1=bus_113.3 Phases=1 kv=157.6864406779661 kw=2118.455348609174 kvar=694.8533543438091 vminpu=0.85
new load.load_114_C bus1=bus_114.3 Phases=1 kv=157.6864406779661 kw=2291.979484618759 kvar=751.7692709549531 vminpu=0.85
new load.load_115_B bus1=bus_115.2 Phases=1 kv=157.6864406779661 kw=2042.117691669597 kvar=669.8146028676279 vminpu=0.85
new load.load_115_C bus1=bus_115.3 Phases=1 kv=157.6864406779661 kw=16.207385537322278 kvar=5.316022456241707 vminpu=0.85
new load.load_116_C bus1=bus_116.3 Phases=1 kv=157.6864406779661 kw=2098.058042053119 kvar=688.1630377934231 vminpu=0.85
new load.load_117_A bus1=bus_117.1 Phases=1 kv=157.6864406779661 kw=1816.3199037846252 kvar=595.7529284413571 vminpu=0.85
new load.load_117_B bus1=bus_117.2 Phases=1 kv=157.6864406779661 kw=5.371386965937646 kvar=1.7618149248275479 vminpu=0.85

!---------------- SOLUTION ----------------

set controlmode=off
Set Voltagebases=[157.6864406779661]
calcv
Solve